/*--------------------------------*- C++ -*----------------------------------*\
| =========                 |                                                 |
| \\      /  F ield         | OpenFOAM: The Open Source CFD Toolbox           |
|  \\    /   O peration     | Version:  2106                                  |
|   \\  /    A nd           | Website:  www.openfoam.com                      |
|    \\/     M anipulation  |                                                 |
\*---------------------------------------------------------------------------*/
FoamFile
{
    version     2.0;
    format      ascii;
    arch        "LSB;label=32;scalar=64";
    class       polyBoundaryMesh;
    location    "constant/polyMesh";
    object      boundary;
}
// * * * * * * * * * * * * * * * * * * * * * * * * * * * * * * * * * * * * * //

7
(
    inlet
    {
        type            patch;
        nFaces          22;
        startFace       34032;
    }
    upperWall
    {
        type            patch;
        nFaces          128;
        startFace       34054;
    }
    farfield
    {
        type            patch;
        nFaces          250;
        startFace       34182;
    }
    outlet
    {
        type            patch;
        nFaces          72;
        startFace       34432;
    }
    back
    {
        type            empty;
        inGroups        1(empty);
        nFaces          17216;
        startFace       34504;
    }
    front
    {
        type            empty;
        inGroups        1(empty);
        nFaces          17216;
        startFace       51720;
    }
    symmetry
    {
        type            symmetryPlane;
        inGroups        1(symmetryPlane);
        nFaces          328;
        startFace       68936;
    }
)

// ************************************************************************* //
